LAMMPS (9 Nov 2016)
Processor partition = 0
# LJ particles
variable        lambda world 400 410 420 430
variable        rep world 1 2 3 4
#variable        walker world 1 2 3 4

variable        T0 equal 300.0
variable        press equal 0.0

units           real
atom_style      full
pair_style      lj/cut 5.0

read_data       "lj.data"
  orthogonal box = (1.06874 1.06874 1.06874) to (23.9313 23.9313 23.9313)
  reading atoms ...
  500 atoms
  reading velocities ...
  500 velocities

thermo          10
thermo_style    custom step temp pe etotal press vol

timestep        1.0

fix             fxnpt all npt temp 300 300 1000.0 iso 0 0 10000.0
fix             fxgREM all grem 400 -.01 -30000 fxnpt
thermo_modify   press fxgREM_press

grem            10000 1000 400 fxgREM fxnpt 10294 98392
  1 neighbor list requests
  update every 1 steps, delay 10 steps, check yes
Step Temp PotEng TotEng Press Volume
0    305.69499   -3177.6423   -2722.9442   -91.741776    11950.115
Averages over the last 501 of 1001 rows, steps 5000 to 10000:
Temp PotEng TotEng Press Volume
304.589 -3165.29 -2712.24 -26.7649 11982.6
Loop time of 3.1044 on 1 procs for 10000 steps with 500 atoms

#write_data      lj-out.data
