LAMMPS (5 May 2020)

units           metal
atom_style      atomic
read_data       data.sigma5
  orthogonal box = (-90.272 -4.42719e-07 0) to (90.272 88.5438 17.5)
  reading atoms ...
  25600 atoms

pair_style      eam
pair_coeff      * * Ni_u3.eam
Reading potential file Ni_u3.eam with DATE: 2007-06-11
timestep        0.001

fix integrator  all npt temp 750 750 0.1 iso 0 0 0.1
fix eco         all orient/eco 0.08 0.25 3.6 sigma5.ori

thermo          100
thermo_style    custom step temp etotal press vol f_eco
velocity        all create 750 18527782

#dump            save all custom 100 orient_eco.dump xs ys zs f_eco[1] f_eco[2]
#dump_modify     save sort id

run             1000
  fix orient/eco: cutoff=3.600000 norm_fac=30.012844 neighbors=18
  update every 1 steps, delay 10 steps, check yes
Step Temp TotEng Press Volume f_eco
0          750   -111027.95    15148.458    279755.85 8.749339e-10
Averages over the last 6 of 11 rows, steps 500 to 1000:
Temp TotEng Press Volume f_eco
636.592 -109190 211.185 288989 -5.02121
Loop time of 34.6285 on 4 procs for 1000 steps with 25600 atoms

Please see the log.cite file for references relevant to this simulation
