LAMMPS (22 Oct 2020)
# demo for atom style template simulating a cyclohexane methane mixture
# part 2: continuing from data file

units real
boundary p p p
molecule cychex cyclohexane.mol
Read molecule template cychex:
  1 molecules
  6 atoms with max type 1
  6 bonds with max type 1
  6 angles with max type 1
  6 dihedrals with max type 1
  0 impropers with max type 0
atom_style template cychex

pair_style lj/cut 12.0
pair_modify mix geometric tail yes
bond_style harmonic
angle_style harmonic
dihedral_style harmonic

read_data template-mix.data
Reading data file ...
  orthogonal box = (-24.000000 -24.000000 -24.000000) to (24.000000 24.000000 24.000000)
  reading atoms ...
  3872 atoms
  reading velocities ...
  3872 velocities
  3072 template bonds
  3072 template angles
  3072 template dihedrals

thermo 100

fix 1 all nvt temp 300.0 300.0 1.0
# dump 1 all custom 100 custom template-mix.lammpstrj id xu yu zu
run 2000
  update every 1 steps, delay 10 steps, check yes
Step Temp E_pair E_mol TotEng Press
0    302.37248    -4957.687    1700.6563    231.95939    10617.134
Averages over the last 11 of 21 rows, steps 1000 to 2000:
Temp E_pair E_mol TotEng Press
301.259 -4968.06 1719.96 228.045 9817.76
Loop time of 15.3127 on 1 procs for 2000 steps with 3872 atoms
