LAMMPS (20 Apr 2018)
# Tethered nanorods

atom_style	molecular

read_data	data.rigid.tnr
  orthogonal box = (-31.122 -31.122 -31.122) to (31.122 31.122 31.122)
  reading atoms ...
  5600 atoms
  scanning bonds ...
  reading bonds ...
  1600 bonds

# Specify bond parameters

bond_style	fene
bond_coeff	1 30.0 1.5 1.0 1.0

special_bonds	fene

# Specify initial velocities

velocity	all create 1.4 109345

# Specify rigid components

group		rods type 2
4000 atoms in group rods
group		tethers	subtract all rods
1600 atoms in group tethers

neigh_modify 	exclude	molecule/intra rods delay 0 every 1

# Specify the pair potentials

pair_style	lj/cut	2.5
pair_modify	shift	yes
pair_coeff	* * 1.0	1.0 1.122
pair_coeff	2 2 1.0 1.0 2.5

# Specify output

thermo	100
thermo_style custom step temp pe etotal press enthalpy lx ly lz pxx pyy pzz
thermo_modify flush yes lost warn

timestep	0.005

fix	1	rods	rigid molecule
800 rigid bodies with 4000 atoms
fix	2	tethers	nve
fix	3	all	langevin 1.4 1.4 1.0 437624

run	5000
  update every 1 steps, delay 0 steps, check yes
Step Temp PotEng TotEng Press Enthalpy Lx Ly Lz Pxx Pyy Pzz
0    1.3963219    5.9478449    7.0445809  0.048565317      9.13595       62.244       62.244       62.244 0.0091983659   0.11850113  0.017996458
Averages over the last 26 of 51 rows, steps 2500 to 5000:
Temp PotEng TotEng Press Enthalpy Lx Ly Lz Pxx Pyy Pzz
1.41363 5.91353 7.02386 0.00416259 7.20312 62.244 62.244 62.244 0.0046324 0.003372 0.00448337
Loop time of 6.73744 on 1 procs for 5000 steps with 5600 atoms

# Replace fix rigid and fix langevin with new ones

unfix	1
unfix	3

fix	3	tethers langevin 1.4 1.4 1.0 198450

# Test different integrators for rods

fix	1 rods	rigid/nve molecule
800 rigid bodies with 4000 atoms
print 	"rigid/nve"
rigid/nve
run	1000
Step Temp PotEng TotEng Press Enthalpy Lx Ly Lz Pxx Pyy Pzz
5000    1.4280291    5.9106136     7.032254   0.02814128    8.2441024       62.244       62.244       62.244  0.019873502  0.039656784  0.024893554
Averages over the last 6 of 11 rows, steps 5500 to 6000:
Temp PotEng TotEng Press Enthalpy Lx Ly Lz Pxx Pyy Pzz
1.41385 5.88461 6.99511 0.00344415 7.14343 62.244 62.244 62.244 0.00380802 0.00313012 0.00339432
Loop time of 1.41082 on 1 procs for 1000 steps with 5600 atoms

unfix	1

fix	1 rods	rigid/nvt molecule temp 1.4 1.4 1.0
800 rigid bodies with 4000 atoms
print 	"rigid/nvt"
rigid/nvt
run	1000
Step Temp PotEng TotEng Press Enthalpy Lx Ly Lz Pxx Pyy Pzz
6000    1.4374163    5.8778036    7.0068171 -0.0020672233    6.9177963       62.244       62.244       62.244  0.034504923 -0.030001164 -0.010705429
Averages over the last 6 of 11 rows, steps 6500 to 7000:
Temp PotEng TotEng Press Enthalpy Lx Ly Lz Pxx Pyy Pzz
1.40471 5.89247 6.9958 0.00468809 7.19768 62.244 62.244 62.244 0.00291531 0.00472505 0.00642391
Loop time of 1.44111 on 1 procs for 1000 steps with 5600 atoms

unfix	1

compute	myTemp all temp

fix	1 rods	rigid/npt molecule temp 1.4 1.4 1.0 iso 0.05 0.05 1.0         dilate all
800 rigid bodies with 4000 atoms
print 	"rigid/npt iso"
rigid/npt iso
fix_modify 1 temp myTemp

run	1000
Step Temp PotEng TotEng Press Enthalpy Lx Ly Lz Pxx Pyy Pzz
7000    1.4370567    5.8900758    7.0188069 -0.0033603557    6.8740999       62.244       62.244       62.244 -0.094745193   0.10894465 -0.024280521
Averages over the last 6 of 11 rows, steps 7500 to 8000:
Temp PotEng TotEng Press Enthalpy Lx Ly Lz Pxx Pyy Pzz
1.53401 5.63684 6.84172 0.044926 7.17939 35.0979 35.0979 35.0979 0.0350276 0.0544069 0.0453435
Loop time of 3.09124 on 1 procs for 1000 steps with 5600 atoms

unfix	1

fix	1 rods	rigid/npt molecule temp 1.4 1.4 1.0 x 0.05 0.05 1.0 dilate all
800 rigid bodies with 4000 atoms
print 	"rigid/npt x"
rigid/npt x
run	1000
Step Temp PotEng TotEng Press Enthalpy Lx Ly Lz Pxx Pyy Pzz
8000    1.4754162    5.5525858    6.7114461 -0.036273091    6.4893215     32.48878     32.48878     32.48878  -0.12886524  -0.13731772   0.15736368
Averages over the last 6 of 11 rows, steps 8500 to 9000:
Temp PotEng TotEng Press Enthalpy Lx Ly Lz Pxx Pyy Pzz
1.43672 5.40728 6.53575 0.0490511 6.79911 28.5273 32.4888 32.4888 0.0461957 0.045708 0.0552495
Loop time of 3.05599 on 1 procs for 1000 steps with 5600 atoms

unfix	1

fix	1 rods	rigid/nph molecule iso 0.05 0.05 1.0 dilate all
800 rigid bodies with 4000 atoms
print 	"rigid/nph iso"
rigid/nph iso
run	1000
Step Temp PotEng TotEng Press Enthalpy Lx Ly Lz Pxx Pyy Pzz
9000    1.4273004     5.369067     6.490135  0.075024718    6.8742614    27.163833     32.48878     32.48878  0.020257355  0.083191009   0.12162579
Averages over the last 6 of 11 rows, steps 9500 to 10000:
Temp PotEng TotEng Press Enthalpy Lx Ly Lz Pxx Pyy Pzz
1.44713 5.27589 6.41253 0.0407226 6.59967 26.1615 31.2899 31.2899 0.0460839 0.0372517 0.0388323
Loop time of 3.23963 on 1 procs for 1000 steps with 5600 atoms

unfix	1

fix	1 rods	rigid/nph molecule x 0.05 0.05 1.0 y 0.05 0.05 1.0         couple xy dilate all
800 rigid bodies with 4000 atoms
print 	"rigid/nph xy couple"
rigid/nph xy couple
run	1000
Step Temp PotEng TotEng Press Enthalpy Lx Ly Lz Pxx Pyy Pzz
10000    1.4337411     5.258442    6.3845688   0.26156311     7.559515    26.004486    31.102166    31.102166   0.31569183   0.56043401 -0.091436513
Averages over the last 6 of 11 rows, steps 10500 to 11000:
Temp PotEng TotEng Press Enthalpy Lx Ly Lz Pxx Pyy Pzz
1.43129 5.17326 6.29746 0.0581048 6.53516 24.8361 29.7048 31.1022 0.0926345 0.0388761 0.0428036
Loop time of 3.41971 on 1 procs for 1000 steps with 5600 atoms
