LAMMPS (17 Mar 2017)
# GCMC for LJ simple fluid, no dynamics

# variables available on command line

variable        mu index -21.0
variable	disp index 1.0
variable        temp index 2.0
variable        lbox index 10.0

# global model settings

units           lj
atom_style      atomic
pair_style      lj/cut 3.0
pair_modify	tail yes

# box

region		box block 0 10.0 0 10.0 0 10.0
create_box	1 box
Created orthogonal box = (0 0 0) to (10 10 10)

# lj parameters

pair_coeff	* * 1.0 1.0
mass		* 1.0

# gcmc

fix             mygcmc all gcmc 1 100 100 1 29494 2.0 -21.0 1.0

# output

variable	tacc equal f_mygcmc[2]/(f_mygcmc[1]+0.1)
variable	iacc equal f_mygcmc[4]/(f_mygcmc[3]+0.1)
variable	dacc equal f_mygcmc[6]/(f_mygcmc[5]+0.1)
compute_modify  thermo_temp dynamic yes
thermo_style    custom step temp press pe ke density atoms v_iacc v_dacc v_tacc
thermo          100

# run

run             1000
  update every 1 steps, delay 10 steps, check yes
Step Temp Press PotEng KinEng Density Atoms v_iacc v_dacc v_tacc
0            0            0            0           -0            0        0            0            0            0
Averages over the last 6 of 11 rows, steps 500 to 1000:
Temp Press PotEng KinEng Density Atoms v_iacc v_dacc v_tacc
1.98195 0.547835 -1.77085 2.96282 0.294667 294.667 0.307883 0.296734 0.348371
Loop time of 3.98286 on 1 procs for 1000 steps with 281 atoms
