LAMMPS (19 Mar 2020)
units metal
boundary p p p
atom_style atomic

## read in path data using fix property/atom
fix pa all property/atom d_nx d_ny d_nz d_dnx d_dny d_dnz d_ddnx d_ddny d_ddnz
read_data test.dat fix pa NULL PafiPath
  orthogonal box = (0 0 0) to (19.9872 19.9872 19.9872)
  reading atoms ...
  687 atoms
run 0
Step Temp E_pair E_mol TotEng Press
0            0            0            0            0            0
Loop time of 6.9535e-06 on 2 procs for 0 steps with 687 atoms

## EAM potential
pair_style    eam/fs
pair_coeff * * Fe_M07.eam.fs Fe

mass * 55.85
thermo 100

compute pe all pe
variable pe equal pe
run 0
  update every 1 steps, delay 10 steps, check yes
Step Temp E_pair E_mol TotEng Press
0            0   -2828.1883            0   -2828.1883    3563.9872
Loop time of 1.475e-06 on 2 procs for 0 steps with 687 atoms

energy=-2828.18833783692

## compute property/atom to access relevant fields
compute pa all property/atom d_nx d_ny d_nz d_dnx d_dny d_dnz d_ddnx d_ddny d_ddnz
run 0
Step Temp E_pair E_mol TotEng Press
0            0   -2828.1883            0   -2828.1883    3563.9872
Loop time of 1.683e-06 on 2 procs for 0 steps with 687 atoms

## fix name group-id hp compute-id temperature damp seed overdamped 0/1 com 0/1
fix hp all hp pa 400.0 0.1 434 overdamped 1 com 1
fix hp compute name,style: pa,property/atom
run 0
Step Temp E_pair E_mol TotEng Press
0            0   -2828.1883            0   -2828.1883    3563.9872
Loop time of 2.206e-06 on 2 procs for 0 steps with 687 atoms

variable dn equal f_hp[4]*f_hp[4] # should be zero
fix af all ave/time 1 1000 1000 f_hp[1] f_hp[2] f_hp[3] v_dn

variable adn equal f_af[4] # should be zero
variable apf equal f_af[1]
run 1000
Step Temp E_pair E_mol TotEng Press
0            0   -2828.1883            0   -2828.1883    3563.9872
Averages over the last 6 of 11 rows, steps 500 to 1000:
Temp E_pair E_mol TotEng Press
0 -2788.99 0 -2788.99 15767.9
Loop time of 2.15129 on 2 procs for 1000 steps with 687 atoms

Squared displacement normal to hyperplane = 1.92841033952627e-23 A^2
average projected force = 0.303660991606611 eV/A
## minimize under same constraint (temperature effectively zero)
min_style fire

minimize 0 0 1000 1000
  Parameters for fire:
    dmax delaystep dtgrow dtshrink alpha0 alphashrink tmax tmin    integrator halfstepback
     0.1        20    1.1      0.5   0.25        0.99   10 0.02 eulerimplicit          yes
Step Temp E_pair E_mol TotEng Press
1000            0   -2790.1726            0   -2790.1726    15862.893
Averages over the last 6 of 11 rows, steps 1500 to 2000:
Temp E_pair E_mol TotEng Press
3.75646e-16 -2828.19 0 -2828.19 3561.25
Loop time of 1.14675 on 2 procs for 1000 steps with 687 atoms

Minimization stats:
  Stopping criterion = max iterations
  Energy initial, next-to-last, final =
  Force two-norm initial, final = 27.9307 5.03831e-07
  Force max component initial, final = 2.89389 1.97794e-07
  Final line search alpha, max atom move = 0 0
  Iterations, force evaluations = 1000 1018

energy=-2828.1886116623

## minimize without constraint
unfix af
unfix hp
minimize 0 0 1000 1000
  Parameters for fire:
    dmax delaystep dtgrow dtshrink alpha0 alphashrink tmax tmin    integrator halfstepback
     0.1        20    1.1      0.5   0.25        0.99   10 0.02 eulerimplicit          yes
Step Temp E_pair E_mol TotEng Press
2000            0   -2828.1886            0   -2828.1886    3561.2549
Averages over the last 6 of 11 rows, steps 2500 to 3000:
Temp E_pair E_mol TotEng Press
1.78507e-19 -2828.38 0 -2828.38 3828.41
Loop time of 1.0043 on 2 procs for 1000 steps with 687 atoms

Minimization stats:
  Stopping criterion = max iterations
  Energy initial, next-to-last, final =
  Force two-norm initial, final = 0.380384 3.56702e-13
  Force max component initial, final = 0.149002 3.48055e-14
  Final line search alpha, max atom move = 0 0
  Iterations, force evaluations = 1000 1029

energy=-2828.37851624648

Please see the log.cite file for references relevant to this simulation
