LAMMPS (15 Apr 2020)
units metal
atom_style atomic
atom_modify map array sort 0 0.0
neigh_modify every 2 delay 10 check yes page 1000000 one 100000

## read in path data using fix property/atom- here 4th image of a NEB
fix pa all property/atom d_nx d_ny d_nz d_dnx d_dny d_dnz d_ddnx d_ddny d_ddnz
read_data pafipath.4.data fix pa NULL PafiPath
  orthogonal box = (0 0 0) to (19.9872 19.9872 19.9872)
  reading atoms ...
  687 atoms

## EAM potential
pair_style    eam/fs
pair_coeff * * Fe_mm.eam.fs Fe
Reading potential file Fe_mm.eam.fs with DATE: 2007-06-11

mass * 55.85
thermo 100
min_style fire

compute pe all pe
variable pe equal pe
run 0
  update every 2 steps, delay 10 steps, check yes
Step Temp E_pair E_mol TotEng Press
0            0   -2828.2492            0   -2828.2492    3015.2014
Loop time of 9.17912e-06 on 4 procs for 0 steps with 687 atoms

energy=-2828.24917967201

## compute property/atom to access relevant fields
compute pa all property/atom d_nx d_ny d_nz d_dnx d_dny d_dnz d_ddnx d_ddny d_ddnz
run 0
Step Temp E_pair E_mol TotEng Press
0            0   -2828.2492            0   -2828.2492    3015.2014
Loop time of 9.11951e-06 on 4 procs for 0 steps with 687 atoms

## fix name group-id pafi compute-id temperature tdamp seed overdamped 0/1 com 0/1
fix hp all pafi pa 500.0 0.01 434 overdamped 0 com 1
fix pafi compute name,style: pa,property/atom

run 0
Step Temp E_pair E_mol TotEng Press
0            0   -2828.2492            0   -2828.2492    3015.2014
Loop time of 9.17912e-06 on 4 procs for 0 steps with 687 atoms

minimize 0 0 1000 1000 # best if using NEB path
  Parameters for fire:
    dmax delaystep dtgrow dtshrink alpha0 alphashrink tmax tmin    integrator halfstepback
     0.1        20    1.1      0.5   0.25        0.99   10 0.02 eulerimplicit          yes
Step Temp E_pair E_mol TotEng Press
0            0   -2828.2492            0   -2828.2492    3015.2014
Averages over the last 6 of 11 rows, steps 500 to 1000:
Temp E_pair E_mol TotEng Press
4.85812e-14 -2828.36 0 -2828.36 3092.89
Loop time of 0.378521 on 4 procs for 1000 steps with 687 atoms

Minimization stats:
  Stopping criterion = max iterations
  Energy initial, next-to-last, final =
  Force two-norm initial, final = 1.2831 7.46892e-07
  Force max component initial, final = 0.333171 2.93218e-07
  Final line search alpha, max atom move = 0 0
  Iterations, force evaluations = 1000 1007

compute dx all displace/atom
compute dmag all reduce max c_dx[4]
variable maxjump equal sqrt(c_dmag)

thermo_style custom step pe temp v_maxjump

variable dn equal f_hp[4]*f_hp[4] # should be zero to float precision

fix af all ave/time 1 1000 1000 f_hp[1] f_hp[2] f_hp[3] v_dn

variable adn equal sqrt(f_af[4]) # should be very small (approx. 1e-6 A)
variable apf equal f_af[1]

run 1000
Step PotEng Temp v_maxjump
1000   -2828.3565 4.8416883e-14            0
Averages over the last 6 of 11 rows, steps 1500 to 2000:
PotEng Temp v_maxjump
-2782.22 512.186 0.590331
Loop time of 0.358743 on 4 procs for 1000 steps with 687 atoms

minimize 0 0 1000 1000
  Parameters for fire:
    dmax delaystep dtgrow dtshrink alpha0 alphashrink tmax tmin    integrator halfstepback
     0.1        20    1.1      0.5   0.25        0.99   10 0.02 eulerimplicit          yes
Step PotEng Temp v_maxjump
2000   -2779.5449            0   0.58247597
Averages over the last 6 of 11 rows, steps 2500 to 3000:
PotEng Temp v_maxjump
-2828.36 4.86743e-14 0.00268958
Loop time of 0.358516 on 4 procs for 1000 steps with 687 atoms

Minimization stats:
  Stopping criterion = max iterations
  Energy initial, next-to-last, final =
  Force two-norm initial, final = 29.3013 7.46923e-07
  Force max component initial, final = 2.07903 2.93237e-07
  Final line search alpha, max atom move = 0 0
  Iterations, force evaluations = 1000 1008

print """
During run:
"""

During run:
  Average Distance From Hyperplane = 1.3664587498043e-05 A,
  Average Force Projection Along MFEP = -0.442220695378227 eV/A

print """
In-plane minimization post-run:
"""

In-plane minimization post-run:
energy = -2828.3564662776 eV

Max Atomic Displacement = 0.00308607949101158A < 0.1A => No in-plane jumps
print """
"""

#unfix hp
#unfix pa
#unfix af

#minimize 0 0 1000 1000
#print """
#Full minimization post-run:
#"""

Please see the log.cite file for references relevant to this simulation
