LAMMPS (24 Dec 2020)
# created by fftool

units real
boundary p p p

atom_style full
bond_style harmonic
angle_style harmonic
special_bonds lj/coul 0.0 0.0 0.5

read_data data.0.lmp
Reading data file ...
  orthogonal box = (-13.443762 -13.443762 -13.443762) to (13.443762 13.443762 13.443762)
  reading atoms ...
  1089 atoms
  scanning bonds ...
  scanning angles ...
  reading bonds ...
  728 bonds
  reading angles ...
  388 angles
Finding 1-2 1-3 1-4 neighbors ...
     8 = max # of 1-2 neighbors
     7 = max # of 1-3 neighbors
     7 = max # of 1-4 neighbors
     8 = max # of special neighbors
# read_restart restart.*.lmp
# reset_timestep 0

pair_style hybrid lj/cut/coul/long 10.0 10.0 lj/cut/coul/long/soft 1 0.5 10.0 10.0 10.0
pair_modify tail yes
kspace_style pppm 1.0e-5

pair_coeff    1    1  none  # C-CF C-CF
pair_coeff    1    2  none  # C-CF H-D
pair_coeff    1    3  none  # C-CF FD-
pair_coeff    1    4  lj/cut/coul/long    0.0000   1.8708  # C-CF Hw
pair_coeff    1    5  lj/cut/coul/long    0.1013   3.3286  # C-CF Ow
pair_coeff    2    2  none  # H-D H-D
pair_coeff    2    3  none  # H-D FD-
pair_coeff    2    4  lj/cut/coul/long/soft    0.0000   1.5811  1.0  # H-D Hw
pair_coeff    2    5  lj/cut/coul/long/soft    0.0683   2.8131  1.0  # H-D Ow
pair_coeff    3    3  none  # FD- FD-
pair_coeff    3    4  lj/cut/coul/long/soft    0.0000   1.7176  0.0  # FD- Hw
pair_coeff    3    5  lj/cut/coul/long/soft    0.0908   3.0559  0.0  # FD- Ow
pair_coeff    4    4  lj/cut/coul/long    0.0000   1.0000  # Hw Hw
pair_coeff    4    5  lj/cut/coul/long    0.0000   1.7792  # Hw Ow
pair_coeff    5    5  lj/cut/coul/long    0.1554   3.1655  # Ow Ow

variable temp equal 300.0
variable press equal 1.0

neighbor 2.0 bin

timestep 2.0

velocity all create 300 12345

fix SHAKE all shake 0.0001 20 10000 b 3 a 4
       0 = # of size 2 clusters
       0 = # of size 3 clusters
       0 = # of size 4 clusters
     360 = # of frozen angles
  find clusters CPU = 0.001 seconds

fix NPT all npt temp 300 300 100 iso 1 1 500

thermo_style custom step cpu etotal ke pe evdwl ecoul elong temp press vol density
thermo 1000

run 200000
PPPM initialization ...
  G vector (1/distance) = 0.30693001
  grid = 24 24 24
  stencil order = 5
  estimated absolute RMS force accuracy = 0.0020317379
  estimated relative force accuracy = 6.1185184e-06
  3d grid and FFT values/proc = 5415 1152
  update every 1 steps, delay 10 steps, check yes
SHAKE stats (type/ave/delta/count) on step 0
Step CPU TotEng KinEng PotEng E_vdwl E_coul E_long Temp Press Volume Density
0            0    793.97042     972.9364   -178.96598   -201.63171    22008.569   -21986.091    448.35165    1600.3409    19438.038   0.56189244
Averages over the last 5 of 10 rows, steps 5000 to 9000:
TotEng KinEng PotEng E_vdwl E_coul E_long Temp Press Volume Density
-3362.23 654.769 -4017 748.643 17546.6 -22313.9 301.733 -267.804 10899.1 1.00218
SHAKE stats (type/ave/delta/count) on step 20000
SHAKE stats (type/ave/delta/count) on step 30000
SHAKE stats (type/ave/delta/count) on step 40000
SHAKE stats (type/ave/delta/count) on step 50000
SHAKE stats (type/ave/delta/count) on step 60000
SHAKE stats (type/ave/delta/count) on step 70000
SHAKE stats (type/ave/delta/count) on step 80000
SHAKE stats (type/ave/delta/count) on step 90000
SHAKE stats (type/ave/delta/count) on step 100000
SHAKE stats (type/ave/delta/count) on step 110000
SHAKE stats (type/ave/delta/count) on step 120000
SHAKE stats (type/ave/delta/count) on step 130000
SHAKE stats (type/ave/delta/count) on step 140000
SHAKE stats (type/ave/delta/count) on step 150000
SHAKE stats (type/ave/delta/count) on step 160000
SHAKE stats (type/ave/delta/count) on step 170000
SHAKE stats (type/ave/delta/count) on step 180000
SHAKE stats (type/ave/delta/count) on step 190000
SHAKE stats (type/ave/delta/count) on step 200000
Loop time of 800.359 on 12 procs for 200000 steps with 1089 atoms

reset_timestep 0

variable dlambda equal  1.0
variable minusdl equal -1.0
variable dqC equal  0.48*v_dlambda-0.24*(1.0-v_dlambda)
variable dqH equal  0.06*(1.0-v_dlambda)
variable dqF equal -0.12*v_dlambda

compute FEP all fep 300     pair lj/cut/coul/long/soft lambda 2 4*5 v_minusdl     pair lj/cut/coul/long/soft lambda 3 4*5 v_dlambda     atom charge 1 v_dqC     atom charge 2 v_dqH     atom charge 3 v_dqF

fix FEP all ave/time 1 1 100 c_FEP[1] c_FEP[2] file bar01.fep

dump TRAJ all custom 5000 dump.lammpstrj id mol type element xu yu zu
dump_modify TRAJ element C H F H O

run 500000
PPPM initialization ...
  G vector (1/distance) = 0.30755632
  grid = 20 20 20
  stencil order = 5
  estimated absolute RMS force accuracy = 0.0025998309
  estimated relative force accuracy = 7.8293134e-06
  3d grid and FFT values/proc = 4046 800
FEP settings ...
  temperature = 300.000000
  tail no
  lj/cut/coul/long/soft lambda 2-2 4-5
  lj/cut/coul/long/soft lambda 3-3 4-5
  1-1 charge
  2-2 charge
  3-3 charge
  update every 1 steps, delay 10 steps, check yes
SHAKE stats (type/ave/delta/count) on step 0
Step CPU TotEng KinEng PotEng E_vdwl E_coul E_long Temp Press Volume Density
0            0   -3423.5377     625.7323     -4049.27    813.19759    17489.337   -22359.387    288.35195    636.94131    10934.774   0.99883975
Averages over the last 5 of 10 rows, steps 5000 to 9000:
TotEng KinEng PotEng E_vdwl E_coul E_long Temp Press Volume Density
-3340.87 648.809 -3989.68 759.824 17602.7 -22358.9 298.986 22.7157 10982.4 0.994676
SHAKE stats (type/ave/delta/count) on step 20000
SHAKE stats (type/ave/delta/count) on step 30000
SHAKE stats (type/ave/delta/count) on step 40000
SHAKE stats (type/ave/delta/count) on step 50000
SHAKE stats (type/ave/delta/count) on step 60000
SHAKE stats (type/ave/delta/count) on step 70000
SHAKE stats (type/ave/delta/count) on step 80000
SHAKE stats (type/ave/delta/count) on step 90000
SHAKE stats (type/ave/delta/count) on step 100000
SHAKE stats (type/ave/delta/count) on step 110000
SHAKE stats (type/ave/delta/count) on step 120000
SHAKE stats (type/ave/delta/count) on step 130000
SHAKE stats (type/ave/delta/count) on step 140000
SHAKE stats (type/ave/delta/count) on step 150000
SHAKE stats (type/ave/delta/count) on step 160000
SHAKE stats (type/ave/delta/count) on step 170000
SHAKE stats (type/ave/delta/count) on step 180000
SHAKE stats (type/ave/delta/count) on step 190000
SHAKE stats (type/ave/delta/count) on step 200000
SHAKE stats (type/ave/delta/count) on step 210000
SHAKE stats (type/ave/delta/count) on step 220000
SHAKE stats (type/ave/delta/count) on step 230000
SHAKE stats (type/ave/delta/count) on step 240000
SHAKE stats (type/ave/delta/count) on step 250000
SHAKE stats (type/ave/delta/count) on step 260000
SHAKE stats (type/ave/delta/count) on step 270000
SHAKE stats (type/ave/delta/count) on step 280000
SHAKE stats (type/ave/delta/count) on step 290000
SHAKE stats (type/ave/delta/count) on step 300000
SHAKE stats (type/ave/delta/count) on step 310000
SHAKE stats (type/ave/delta/count) on step 320000
SHAKE stats (type/ave/delta/count) on step 330000
SHAKE stats (type/ave/delta/count) on step 340000
SHAKE stats (type/ave/delta/count) on step 350000
SHAKE stats (type/ave/delta/count) on step 360000
SHAKE stats (type/ave/delta/count) on step 370000
SHAKE stats (type/ave/delta/count) on step 380000
SHAKE stats (type/ave/delta/count) on step 390000
SHAKE stats (type/ave/delta/count) on step 400000
SHAKE stats (type/ave/delta/count) on step 410000
SHAKE stats (type/ave/delta/count) on step 420000
SHAKE stats (type/ave/delta/count) on step 430000
SHAKE stats (type/ave/delta/count) on step 440000
SHAKE stats (type/ave/delta/count) on step 450000
SHAKE stats (type/ave/delta/count) on step 460000
SHAKE stats (type/ave/delta/count) on step 470000
SHAKE stats (type/ave/delta/count) on step 480000
SHAKE stats (type/ave/delta/count) on step 490000
SHAKE stats (type/ave/delta/count) on step 500000
Loop time of 1769.26 on 12 procs for 500000 steps with 1089 atoms

# write_restart restart.*.lmp
write_data data.*.lmp
System init for write_data ...
PPPM initialization ...
  G vector (1/distance) = 0.30686501
  grid = 20 20 20
  stencil order = 5
  estimated absolute RMS force accuracy = 0.0026750428
  estimated relative force accuracy = 8.0558119e-06
  3d grid and FFT values/proc = 4046 800
  update every 1 steps, delay 10 steps, check yes
