LAMMPS (24 Dec 2020)
# Big colloid particles and small LJ particles

units		lj
atom_style	sphere
dimension	2
read_data       data
Reading data file ...
  triclinic box = (9.9514336 9.9514336 0.0000000) to (331.81396 331.81396 1.0000000) with tilt (0.0000000 0.0000000 0.0000000)
  reading atoms ...
  10000 atoms
  reading velocities ...
  10000 velocities
change_box      all triclinic
Changing box ...
  triclinic box = (9.9514336 9.9514336 0.0000000) to (331.81396 331.81396 1.0000000) with tilt (0.0000000 0.0000000 0.0000000)

# multi neighbor and comm for efficiency

neighbor	1 multi
neigh_modify	delay 0 collection/interval 6 1.5 3 10 30 100 200
comm_modify     mode multi vel yes reduce/multi

# granular potential

pair_style      granular
pair_coeff      * * hooke 1.0 0.5 tangential linear_history 1.0 0.5 0.1 damping mass_velocity

# fixes

fix		1 all nve/sphere
fix		2 all enforce2d
fix             3 all deform 1 xy erate 2e-4

# dump		1 all custom 2000 dump.granular id x y z radius

thermo_style	custom step temp epair etotal press vol pxy
thermo		1000

timestep	0.005

run		100000
  update every 1 steps, delay 0 steps, check yes
Step Temp E_pair TotEng Press Volume Pxy
0 0.00014649953            0 0.00014648488  0.027643657    103595.49 -0.0014952693
Averages over the last 51 of 101 rows, steps 50000 to 100000:
Temp E_pair TotEng Press Volume Pxy
0.000694801 0 0.000694731 0.0297847 103595 -0.00637593
Loop time of 77.8133 on 4 procs for 100000 steps with 10000 atoms

Please see the log.cite file for references relevant to this simulation
