LAMMPS (17 Feb 2022)
# compute pressure/cartesian for a flat liquid-vapor interface

units           lj
atom_style      atomic
processors      * * 1

lattice         fcc 0.8442
Lattice spacing in x,y,z = 1.6795962 1.6795962 1.6795962
region          box block 0 10 0 10 0 30
region    liquid block 0 10 0 10 10 20
create_box      1 box
Created orthogonal box = (0 0 0) to (16.795962 16.795962 50.387886)
create_atoms    1 region liquid
Created 4200 atoms
mass            1 1.0

velocity        all create 0.65 87287 loop geom

pair_style      lj/cut 2.5
pair_coeff      1 1 1.0 1.0 2.5

neighbor        0.3 bin
neigh_modify    every 20 delay 0 check no

fix             1 all nvt temp 0.7 0.7 0.2

thermo          50
#dump           id all atom 50 dump.flat

#dump           2 all image 25 image.*.jpg type type #               axes yes 0.8 0.02 view 60 -30
#dump_modify    2 pad 3

#dump           3 all movie 25 movie.mpg type type #               axes yes 0.8 0.02 view 60 -30
#dump_modify    3 pad 3

fix 2 all recenter NULL NULL 15 units lattice
compute p1 all pressure/cartesian z 0.5
Adjusting first bin width for compute pressure/cartesian from 0.500000 to 0.503879
fix 3 all ave/time 100 1 100 c_p1[*] file flat.out mode vector
#compute p2 all pressure/cartesian z 0.25 x 1
#fix 4 all ave/time 100 1 100 c_p2[*] file flat_2d.out mode vector

run             1000

CITE-CITE-CITE-CITE-CITE-CITE-CITE-CITE-CITE-CITE-CITE-CITE-CITE

Your simulation uses code contributions which should be cited:

- compute pressure/cartesian:

@article{galteland2021nanothermodynamic,
title={Nanothermodynamic description and molecular simulation of a single-phase fluid in a slit pore},
author={Galteland, Olav and Bedeaux, Dick and Kjelstrup, Signe}
,journal={Nanomaterials},
volume={11},
number={1},
pages={165},
year={2021},
publisher={Multidisciplinary Digital Publishing Institute}
}

CITE-CITE-CITE-CITE-CITE-CITE-CITE-CITE-CITE-CITE-CITE-CITE-CITE

  generated 0 of 0 mixed pair_coeff terms from geometric mixing rule
  update every 20 steps, delay 0 steps, check no
Step Temp E_pair E_mol TotEng Press
0         0.65   -6.5342767            0   -5.5595088   -1.9070205
Averages over the last 11 of 21 rows, steps 500 to 1000:
Temp E_pair E_mol TotEng Press
0.687698 -5.98049 0 -4.94918 -0.0117177
Loop time of 0.675356 on 4 procs for 1000 steps with 4200 atoms
