LAMMPS (17 Feb 2022)
# compute pressure/cylinder for a cylindrical liquid-vapor interface

units		lj
atom_style	atomic

lattice		fcc 0.8442
Lattice spacing in x,y,z = 1.6795962 1.6795962 1.6795962
region		box block -10 10 -10 10 0 10
region    liquid cylinder z 0 0 5 0 10
create_box	1 box
Created orthogonal box = (-16.795962 -16.795962 0) to (16.795962 16.795962 16.795962)
create_atoms	1 region liquid
Created 3170 atoms
mass		1 1.0

velocity	all create 0.65 87287 loop geom

pair_style	lj/cut 2.5
pair_coeff	1 1 1.0 1.0 2.5

neighbor	0.3 bin
neigh_modify	every 20 delay 0 check no

fix		1 all nvt temp 0.65 0.65 0.2

thermo		50
#dump		id all atom 50 dump.cylinder

#dump		2 all image 25 image.*.jpg type type #		axes yes 0.8 0.02 view 60 -30
#dump_modify	2 pad 3

#dump		3 all movie 25 movie.mpg type type #		axes yes 0.8 0.02 view 60 -30
#dump_modify	3 pad 3

fix 2 all recenter 0 0 NULL units lattice
compute p all pressure/cylinder 0 10 15 0.25
fix 3 all ave/time 100 1 100 c_p[*] file cylinder.out mode vector

run		1000

CITE-CITE-CITE-CITE-CITE-CITE-CITE-CITE-CITE-CITE-CITE-CITE-CITE

Your simulation uses code contributions which should be cited:

- compute pressure/cylinder:

@Article{Addington,
 author = {C. K. Addington, Y. Long, K. E. Gubbins},
 title = {The pressure in interfaces having cylindrical geometry},
 journal = {J.~Chem.~Phys.},
 year =    2018,
 volume =  149,
 pages =   {084109}
}

CITE-CITE-CITE-CITE-CITE-CITE-CITE-CITE-CITE-CITE-CITE-CITE-CITE

  generated 0 of 0 mixed pair_coeff terms from geometric mixing rule
  update every 20 steps, delay 0 steps, check no
Step Temp E_pair E_mol TotEng Press
0         0.65   -6.2219331            0   -5.2472407   -1.0193897
Averages over the last 11 of 21 rows, steps 500 to 1000:
Temp E_pair E_mol TotEng Press
0.636853 -5.30079 0 -4.34581 -0.0884865
Loop time of 0.709732 on 4 procs for 1000 steps with 3170 atoms
