LAMMPS (29 Sep 2021 - Update 3)
variable     T  equal  0.2
variable     LD equal  1.0

units	     lj
atom_style   ellipsoid

boundary     p p p

read_data    read_data.vesicle1026
Reading data file ...
  orthogonal box = (-35.000000 -35.000000 -35.000000) to (35.000000 35.000000 35.000000)
  reading atoms ...
  2938 atoms
  2938 ellipsoids

compute      ali  all temp/com
compute      rott all temp/asphere bias ali

velocity     all create 0.2 87287 loop geom

pair_style   ylz  2.6
pair_coeff   *  *   1.0  1.0  4  3  0.0  2.6
neighbor     1.0 bin

thermo_style custom step temp press pxx pyy
thermo	     200

timestep     0.001

dump	     1 all atom 10 onlymembrane2.lammpstrj

fix          1 all langevin 0.2 0.2  1  48279

fix	     2 all nve/asphere

run          3000

CITE-CITE-CITE-CITE-CITE-CITE-CITE-CITE-CITE-CITE-CITE-CITE-CITE

Your simulation uses code contributions which should be cited:

- pair ylz command:

@Article{Yuan10,
 author =  {H. Yuan, C. Huang, J. Li, G. Lykotrafitis, and S. Zhang},
 title =   {One-particle-thick, solvent-free, coarse-grained model for biological and biomimetic fluid membranes},
 journal = {Phys. Rev. E},
 year =    2010,
 volume =  82,
 pages =   {011905}
}

CITE-CITE-CITE-CITE-CITE-CITE-CITE-CITE-CITE-CITE-CITE-CITE-CITE

  update every 1 steps, delay 10 steps, check yes
Step Temp Press Pxx Pyy
0          0.2 -0.0054891414 -0.0052713616 -0.0053641136
Averages over the last 8 of 16 rows, steps 1600 to 3000:
Temp Press Pxx Pyy
0.199591 -0.00119758 -0.00125621 -0.00124882
Loop time of 7.2222 on 1 procs for 3000 steps with 2938 atoms

# notes-1: for npt control, t_start,p_start don't need to be the same as real staring value, moreover, it can cause problem.
# notes-2: drag=0.2  is effective for control pressure, pressure reach desired value too slow if no drag
# notes-3: pressure reach equilibrium much quicker than temperature
