LAMMPS (24 Aug 2020)
# created by fftool

units real
boundary p p p

atom_style full
bond_style harmonic
angle_style harmonic
dihedral_style opls

special_bonds lj/coul 0.0 0.0 0.5

pair_style hybrid/overlay lj/cut/coul/long 8.0 8.0 thole 2.600 8.0 coul/tt 4 8.0
pair_modify tail yes
kspace_style pppm 1.0e-5

read_data data.eg.lmp
Reading data file ...
  orthogonal box = (0.0000000 0.0000000 0.0000000) to (35.000000 35.000000 35.000000)
  reading atoms ...
  2800 atoms
  scanning bonds ...
  scanning angles ...
  scanning dihedrals ...
  reading bonds ...
  2600 bonds
  reading angles ...
  2800 angles
  reading dihedrals ...
  3000 dihedrals
Finding 1-2 1-3 1-4 neighbors ...
     5 = max # of 1-2 neighbors
     6 = max # of 1-3 neighbors
    10 = max # of 1-4 neighbors
    13 = max # of special neighbors

pair_coeff    1    1 lj/cut/coul/long     0.057289     3.500000  # CTO CTO ~
pair_coeff    1    2 lj/cut/coul/long     0.091945     3.304542  # CTO OHG ~
pair_coeff    1    3 lj/cut/coul/long     0.038625     2.958040  # CTO H1O ~
pair_coeff    1    4 lj/cut/coul/long     0.000000     0.000000  # CTO HOG ~
pair_coeff    2    2 lj/cut/coul/long     0.147565     3.120000  # OHG OHG ~
pair_coeff    2    3 lj/cut/coul/long     0.061990     2.792848  # OHG H1O ~
pair_coeff    2    4 lj/cut/coul/long     0.000000     0.000000  # OHG HOG ~
pair_coeff    3    3 lj/cut/coul/long     0.026041     2.500000  # H1O H1O ~
pair_coeff    3    4 lj/cut/coul/long     0.000000     0.000000  # H1O HOG ~
pair_coeff    4    4 lj/cut/coul/long     0.000000     0.000000  # HOG HOG ~
pair_coeff    *   5* lj/cut/coul/long     0.000000     0.000000
pair_coeff    1    1 thole   1.662
pair_coeff    1    2 thole   1.561
pair_coeff    1    5 thole   1.662
pair_coeff    1    6 thole   1.561
pair_coeff    2    2 thole   1.467
pair_coeff    2    5 thole   1.561
pair_coeff    2    6 thole   1.467
pair_coeff    5    5 thole   1.662
pair_coeff    5    6 thole   1.561
pair_coeff    6    6 thole   1.467
pair_coeff    2    4 coul/tt  4.5 1.0
pair_coeff    4    6 coul/tt  4.5 1.0
pair_coeff    1    4 coul/tt  4.5 1.0
pair_coeff    4    5 coul/tt  4.5 1.0

group ATOMS type 1 2 3 4
2000 atoms in group ATOMS
group CORES type 1 2
800 atoms in group CORES
group DRUDES type 5 6
800 atoms in group DRUDES

fix DRUDE all drude C C N N D D

fix SHAKE ATOMS shake 0.0001 20 0 b 3 4
     400 = # of size 2 clusters
     400 = # of size 3 clusters
       0 = # of size 4 clusters
       0 = # of frozen angles
  find clusters CPU = 0.000 seconds

neighbor 2.0 bin

timestep 1.0

variable TK equal 298.0
variable TDK equal 1.0
variable PBAR equal 1.0

comm_modify vel yes
velocity ATOMS create 298 12345

compute TATOM ATOMS temp
compute TDRUDE all temp/drude

fix DTDIR all drude/transform/direct
fix TSTAT ATOMS npt temp 298 298 200 iso 1 1 1000
fix_modify TSTAT temp TATOM press thermo_press
fix TSTDR DRUDES nvt temp 1 1 50
fix DTINV all drude/transform/inverse

fix ICECUBE all momentum 1000 linear 1 1 1

thermo_style custom step time cpu etotal ke pe ebond eangle evdwl ecoul elong   press vol density c_TATOM c_TDRUDE[1] c_TDRUDE[2]
thermo 10

run 2000
PPPM initialization ...
  G vector (1/distance) = 0.41206781
  grid = 54 54 54
  stencil order = 5
  estimated absolute RMS force accuracy = 0.0040479865
  estimated relative force accuracy = 1.2190391e-05
  3d grid and FFT values/proc = 81648 40824
Rebuild special list taking Drude particles into account
Old max number of 1-2 to 1-4 neighbors: 13
New max number of 1-2 to 1-4 neighbors: 13 (+0)
  update every 1 steps, delay 10 steps, check yes
Step Time CPU TotEng KinEng PotEng E_bond E_angle E_vdwl E_coul E_long Press Volume Density c_TATOM c_TDRUDE[1] c_TDRUDE[2]
0            0            0    2707.9246     1420.362    1287.5627    1474.8647    30.734202   -461.31379    540022.21   -539778.93   -9408.4231        42875   0.48077588          298    294.34401    6.9394757
Averages over the last 101 of 201 rows, steps 1000 to 2000:
TotEng KinEng PotEng E_bond E_angle E_vdwl E_coul E_long Press Volume Density c_TATOM c_TDRUDE[1] c_TDRUDE[2]
240.815 1500.72 -1259.9 490.498 575.098 -183.145 537875 -539989 -202.441 38624.6 0.533936 309.231 314.166 0.993493
Loop time of 41.9183 on 4 procs for 2000 steps with 2800 atoms

write_data data-eq.eg.lmp
System init for write_data ...
PPPM initialization ...
  G vector (1/distance) = 0.41619437
  grid = 54 54 54
  stencil order = 5
  estimated absolute RMS force accuracy = 0.0035032687
  estimated relative force accuracy = 1.054999e-05
  3d grid and FFT values/proc = 81648 40824
  update every 1 steps, delay 10 steps, check yes
