LAMMPS (29 Oct 2020)
# created by fftool

units real
boundary p p p

atom_style full
bond_style harmonic
angle_style harmonic
special_bonds lj/coul 0.0 0.0 0.5

read_data data.1.lmp
Reading data file ...
  orthogonal box = (-13.443762 -13.443762 -13.443762) to (13.443762 13.443762 13.443762)
  reading atoms ...
  1089 atoms
  scanning bonds ...
  scanning angles ...
  reading bonds ...
  728 bonds
  reading angles ...
  388 angles
Finding 1-2 1-3 1-4 neighbors ...
     8 = max # of 1-2 neighbors
     7 = max # of 1-3 neighbors
     7 = max # of 1-4 neighbors
     8 = max # of special neighbors
# read_restart restart.*.lmp
# reset_timestep 0

pair_style hybrid lj/cut/coul/long 10.0 10.0 lj/cut/coul/long/soft 1 0.5 10.0 10.0 10.0
pair_modify tail yes
kspace_style pppm 1.0e-5

pair_coeff    1    1  none  # CF-C CF-C
pair_coeff    1    2  none  # CF-C HD-
pair_coeff    1    3  none  # CF-C F-D
pair_coeff    1    4  lj/cut/coul/long    0.0000   1.8708  # CF-C Hw
pair_coeff    1    5  lj/cut/coul/long    0.1013   3.3286  # CF-C Ow
pair_coeff    2    2  none  # HD- HD-
pair_coeff    2    3  none  # HD- F-D
pair_coeff    2    4  lj/cut/coul/long/soft    0.0000   1.5811  0.0  # HD- Hw
pair_coeff    2    5  lj/cut/coul/long/soft    0.0683   2.8131  0.0  # HD- Ow
pair_coeff    3    3  none  # F-D F-D
pair_coeff    3    4  lj/cut/coul/long/soft    0.0000   1.7176  1.0  # F-D Hw
pair_coeff    3    5  lj/cut/coul/long/soft    0.0908   3.0559  1.0  # F-D Ow
pair_coeff    4    4  lj/cut/coul/long    0.0000   1.0000  # Hw Hw
pair_coeff    4    5  lj/cut/coul/long    0.0000   1.7792  # Hw Ow
pair_coeff    5    5  lj/cut/coul/long    0.1554   3.1655  # Ow Ow

variable temp equal 300.0
variable press equal 1.0

neighbor 2.0 bin

timestep 2.0

velocity all create 300 12345

fix SHAKE all shake 0.0001 20 10000 b 3 a 4
       0 = # of size 2 clusters
       0 = # of size 3 clusters
       0 = # of size 4 clusters
     360 = # of frozen angles
  find clusters CPU = 0.001 seconds

fix NPT all npt temp 300 300 100 iso 1 1 500

thermo_style custom step cpu etotal ke pe evdwl ecoul elong temp press vol density
thermo 1000

run 200000
PPPM initialization ...
  G vector (1/distance) = 0.30693002
  grid = 24 24 24
  stencil order = 5
  estimated absolute RMS force accuracy = 0.0020328676
  estimated relative force accuracy = 6.1219205e-06
  3d grid and FFT values/proc = 5415 1152
  update every 1 steps, delay 10 steps, check yes
SHAKE stats (type/ave/delta/count) on step 0
Step CPU TotEng KinEng PotEng E_vdwl E_coul E_long Temp Press Volume Density
0            0    780.01261     972.9364    -192.9238   -201.60296    22007.591     -21999.1    448.35165    1616.5365    19438.038   0.56189244
Averages over the last 5 of 10 rows, steps 5000 to 9000:
TotEng KinEng PotEng E_vdwl E_coul E_long Temp Press Volume Density
-3380.26 658.967 -4039.23 750.281 17533.2 -22325.6 303.667 -117.1 10806.9 1.01078
SHAKE stats (type/ave/delta/count) on step 20000
SHAKE stats (type/ave/delta/count) on step 30000
SHAKE stats (type/ave/delta/count) on step 40000
SHAKE stats (type/ave/delta/count) on step 50000
SHAKE stats (type/ave/delta/count) on step 60000
SHAKE stats (type/ave/delta/count) on step 70000
SHAKE stats (type/ave/delta/count) on step 80000
SHAKE stats (type/ave/delta/count) on step 90000
SHAKE stats (type/ave/delta/count) on step 100000
SHAKE stats (type/ave/delta/count) on step 110000
SHAKE stats (type/ave/delta/count) on step 120000
SHAKE stats (type/ave/delta/count) on step 130000
SHAKE stats (type/ave/delta/count) on step 140000
SHAKE stats (type/ave/delta/count) on step 150000
SHAKE stats (type/ave/delta/count) on step 160000
SHAKE stats (type/ave/delta/count) on step 170000
SHAKE stats (type/ave/delta/count) on step 180000
SHAKE stats (type/ave/delta/count) on step 190000
SHAKE stats (type/ave/delta/count) on step 200000
Loop time of 809.747 on 12 procs for 200000 steps with 1089 atoms

reset_timestep 0

variable dlambda equal  1.0
variable minusdl equal -1.0
variable dqC equal -0.24*v_dlambda+0.48*(1.0-v_dlambda)
variable dqH equal  0.06*v_dlambda
variable dqF equal -0.12*(1.0-v_dlambda)

compute FEP all fep 300     pair lj/cut/coul/long/soft lambda 2 4*5 v_dlambda     pair lj/cut/coul/long/soft lambda 3 4*5 v_minusdl     atom charge 1 v_dqC     atom charge 2 v_dqH     atom charge 3 v_dqF

fix FEP all ave/time 1 1 100 c_FEP[1] c_FEP[2] file bar10.fep

dump TRAJ all custom 5000 dump.lammpstrj id mol type element xu yu zu
dump_modify TRAJ element C H F H O

run 500000
PPPM initialization ...
  G vector (1/distance) = 0.30763061
  grid = 20 20 20
  stencil order = 5
  estimated absolute RMS force accuracy = 0.0025933147
  estimated relative force accuracy = 7.8096903e-06
  3d grid and FFT values/proc = 4046 800
FEP settings ...
  temperature = 300.000000
  tail no
  lj/cut/coul/long/soft lambda 2-2 4-5
  lj/cut/coul/long/soft lambda 3-3 4-5
  1-1 charge
  2-2 charge
  3-3 charge
  update every 1 steps, delay 10 steps, check yes
SHAKE stats (type/ave/delta/count) on step 0
Step CPU TotEng KinEng PotEng E_vdwl E_coul E_long Temp Press Volume Density
0            0   -3405.6879    622.03173   -4027.7196    688.99195    17656.362   -22377.994    286.64664   -1094.2654      10900.9    1.0019436
Averages over the last 5 of 10 rows, steps 5000 to 9000:
TotEng KinEng PotEng E_vdwl E_coul E_long Temp Press Volume Density
-3365.38 664.037 -4029.41 747.385 17596.2 -22376.6 306.003 -69.0634 10831.5 1.00857
SHAKE stats (type/ave/delta/count) on step 20000
SHAKE stats (type/ave/delta/count) on step 30000
SHAKE stats (type/ave/delta/count) on step 40000
SHAKE stats (type/ave/delta/count) on step 50000
SHAKE stats (type/ave/delta/count) on step 60000
SHAKE stats (type/ave/delta/count) on step 70000
SHAKE stats (type/ave/delta/count) on step 80000
SHAKE stats (type/ave/delta/count) on step 90000
SHAKE stats (type/ave/delta/count) on step 100000
SHAKE stats (type/ave/delta/count) on step 110000
SHAKE stats (type/ave/delta/count) on step 120000
SHAKE stats (type/ave/delta/count) on step 130000
SHAKE stats (type/ave/delta/count) on step 140000
SHAKE stats (type/ave/delta/count) on step 150000
SHAKE stats (type/ave/delta/count) on step 160000
SHAKE stats (type/ave/delta/count) on step 170000
SHAKE stats (type/ave/delta/count) on step 180000
SHAKE stats (type/ave/delta/count) on step 190000
SHAKE stats (type/ave/delta/count) on step 200000
SHAKE stats (type/ave/delta/count) on step 210000
SHAKE stats (type/ave/delta/count) on step 220000
SHAKE stats (type/ave/delta/count) on step 230000
SHAKE stats (type/ave/delta/count) on step 240000
SHAKE stats (type/ave/delta/count) on step 250000
SHAKE stats (type/ave/delta/count) on step 260000
SHAKE stats (type/ave/delta/count) on step 270000
SHAKE stats (type/ave/delta/count) on step 280000
SHAKE stats (type/ave/delta/count) on step 290000
SHAKE stats (type/ave/delta/count) on step 300000
SHAKE stats (type/ave/delta/count) on step 310000
SHAKE stats (type/ave/delta/count) on step 320000
SHAKE stats (type/ave/delta/count) on step 330000
SHAKE stats (type/ave/delta/count) on step 340000
SHAKE stats (type/ave/delta/count) on step 350000
SHAKE stats (type/ave/delta/count) on step 360000
SHAKE stats (type/ave/delta/count) on step 370000
SHAKE stats (type/ave/delta/count) on step 380000
SHAKE stats (type/ave/delta/count) on step 390000
SHAKE stats (type/ave/delta/count) on step 400000
SHAKE stats (type/ave/delta/count) on step 410000
SHAKE stats (type/ave/delta/count) on step 420000
SHAKE stats (type/ave/delta/count) on step 430000
SHAKE stats (type/ave/delta/count) on step 440000
SHAKE stats (type/ave/delta/count) on step 450000
SHAKE stats (type/ave/delta/count) on step 460000
SHAKE stats (type/ave/delta/count) on step 470000
SHAKE stats (type/ave/delta/count) on step 480000
SHAKE stats (type/ave/delta/count) on step 490000
SHAKE stats (type/ave/delta/count) on step 500000
Loop time of 1794.31 on 12 procs for 500000 steps with 1089 atoms

# write_restart restart.*.lmp
write_data data.*.lmp
System init for write_data ...
PPPM initialization ...
  G vector (1/distance) = 0.30749074
  grid = 20 20 20
  stencil order = 5
  estimated absolute RMS force accuracy = 0.0026083472
  estimated relative force accuracy = 7.8549602e-06
  3d grid and FFT values/proc = 4046 800
  update every 1 steps, delay 10 steps, check yes
