LAMMPS (30 Mar 2018)
echo both

units		metal
atom_style	full

read_data	data.interface
  triclinic box = (0 0 0) to (138.4 34.57 34.57) with tilt (0 0 0)
  reading atoms ...
  4096 atoms
  reading velocities ...
  4096 velocities
mass            1 22.98977

neigh_modify    delay 10 every 1
pair_style 	eam/fs
pair_coeff 	* * Na_MendelevM_2014.eam.fs Na
timestep	0.002
thermo          500

neighbor 	4. bin

# Define computes
# Global density, no average
compute         1 all entropy/atom 0.25 7.75
# Local density, no average
compute         2 all entropy/atom 0.25 7.75 local yes
# Global density, average over neighbors
compute         3 all entropy/atom 0.25 7.75 avg yes 5.
# Local density, average over neighbors
compute         4 all entropy/atom 0.25 7.75 avg yes 5. local yes

dump            myDump all custom 500 dump.interface id type x y z c_1 c_2 c_3 c_4

fix             1 all nph x 1. 1. 10.
fix             2 all temp/csvr 350. 350. 0.1 64582

run             100000
  update every 1 steps, delay 10 steps, check yes
Step Temp E_pair E_mol TotEng Press Volume
0    346.29871    -4285.222            0   -4101.9191    594.65353    165399.75
Averages over the last 101 of 201 rows, steps 50000 to 100000:
Temp E_pair E_mol TotEng Press Volume
350.127 -4340.25 0 -4154.92 11.612 165295
Loop time of 333.54 on 4 procs for 100000 steps with 4096 atoms
