LAMMPS (26 Jan 2017)
# Solvated 5-mer peptide, run for 20ps in NVT

units           real
atom_style      full

pair_style      lj/charmm/coul/long 8.0 10.0 10.0
bond_style      harmonic
angle_style     charmm
dihedral_style  charmm
improper_style  harmonic
kspace_style    pppm 0.0001

read_data       data.peptide
  orthogonal box = (36.8402 41.0137 29.7681) to (64.2116 68.3851 57.1395)
  reading atoms ...
  2004 atoms
  reading velocities ...
  2004 velocities
  scanning bonds ...
  scanning angles ...
  scanning dihedrals ...
  scanning impropers ...
  reading bonds ...
  1365 bonds
  reading angles ...
  786 angles
  reading dihedrals ...
  207 dihedrals
  reading impropers ...
  12 impropers

neighbor        2.0 bin
neigh_modify    delay 5

thermo          50
dump            dump1 all atom 100 peptide.dump

timestep        8

run_style respa 3 2 8 bond 1 pair 2 kspace 3
Respa levels:
  1 = bond angle dihedral improper
  2 = pair
  3 = kspace

fix             1 all nvt temp 250.0 250.0 100.0 tchain 1
fix             cor all filter/corotate m 1.0
run             2500
PPPM initialization ...
  G vector (1/distance) = 0.268725
  grid = 15 15 15
  stencil order = 5
  estimated absolute RMS force accuracy = 0.0228209
  estimated relative force accuracy = 6.87243e-05
  3d grid and FFT values/proc = 4312 960
  update every 1 steps, delay 5 steps, check yes
Step Temp E_pair E_mol TotEng Press
0     190.0857   -6785.6785    70.391457   -5580.3684    19434.821
Averages over the last 26 of 51 rows, steps 1250 to 2500:
Temp E_pair E_mol TotEng Press
249.502 -7782.53 898.406 -5394.45 -1621.61
Loop time of 76.5028 on 4 procs for 2500 steps with 2004 atoms

unfix           cor
unfix           1

Please see the log.cite file for references relevant to this simulation
