LAMMPS (28 Feb 2019)
# 2d micelle simulation

dimension	2

neighbor	0.3 bin
neigh_modify	delay 5

atom_style	bond

# Soft potential push-off

read_data	data.micelle
  orthogonal box = (-0.39293 -0.050929 -0.1) to (35.4639 35.8059 0.1)
  reading atoms ...
  1200 atoms
  scanning bonds ...
  reading bonds ...
  300 bonds
special_bonds	fene

pair_style	soft 1.12246
pair_coeff	* * 0.0 1.12246

bond_style 	harmonic
bond_coeff	1 50.0 0.75

velocity	all create 0.45 2349852

variable	prefactor equal ramp(1.0,20.0)

fix		1 all nve
fix		2 all temp/rescale 100 0.45 0.45 0.02 1.0
fix		3 all adapt 1 pair soft a * * v_prefactor
fix		4 all enforce2d

thermo		50
run		1000
  update every 1 steps, delay 5 steps, check yes
Step Temp E_pair E_mol TotEng Press
0         0.45   0.40179153  0.017198847   0.86861538   0.75625658
Averages over the last 11 of 21 rows, steps 500 to 1000:
Temp E_pair E_mol TotEng Press
0.487281 0.5218 0.093659 1.10233 5.38334
Loop time of 0.0372003 on 4 procs for 1000 steps with 1200 atoms

unfix		3

# Main run

pair_style	lj/cut 2.5

# solvent/head - full-size and long-range

pair_coeff	1 1 1.0 1.0 2.5
pair_coeff	2 2 1.0 1.0 2.5
pair_coeff	1 2 1.0 1.0 2.5

# tail/tail - size-averaged and long-range

pair_coeff	3 3 1.0 0.75 2.5
pair_coeff	4 4 1.0 0.50 2.5
pair_coeff	3 4 1.0 0.67 2.5

# solvent/tail - full-size and repulsive

pair_coeff	1 3 1.0 1.0 1.12246
pair_coeff	1 4 1.0 1.0 1.12246

# head/tail - size-averaged and repulsive

pair_coeff	2 3 1.0 0.88 1.12246
pair_coeff	2 4 1.0 0.75 1.12246

thermo		1000

#dump		1 all atom 2000 dump.micelle

#dump		2 all image 2000 image.*.jpg type type zoom 1.6
#dump_modify	2 pad 5 adiam 1 0.5 adiam 2 1.5 adiam 3 1.0 adiam 4 0.75

#dump		3 all movie 2000 movie.mpg type type zoom 1.6
#dump_modify	3 pad 5 adiam 1 0.5 adiam 2 1.5 adiam 3 1.0 adiam 4 0.75

reset_timestep	0
group solvent   molecule 0
0 atoms in group solvent
group solute    subtract all solvent
1200 atoms in group solute
unfix 1
unfix 2
unfix 4
fix		1 solvent nve
fix		2 solvent temp/rescale 100 0.45 0.45 0.02 1.0
fix		5 solute rigid molecule langevin 0.45 0.45 0.5 112211
151 rigid bodies with 1200 atoms
fix		4 all enforce2d
run		20000
  update every 1 steps, delay 5 steps, check yes
Step Temp E_pair E_mol TotEng Press
0   0.43824398   -1.7061976  0.094144249      -1.5297    35.328657
Averages over the last 11 of 21 rows, steps 10000 to 20000:
Temp E_pair E_mol TotEng Press
0.453861 -1.76966 0.0941442 -1.59023 2.06721
Loop time of 1.7116 on 4 procs for 20000 steps with 1200 atoms

unfix 5
unfix 4
fix		5 solute rigid/small molecule langevin 0.45 0.45 0.5 112211
151 rigid bodies with 1200 atoms
  25.2208 = max distance from body owner to body atom
fix		4 all enforce2d
run		20000
Step Temp E_pair E_mol TotEng Press
20000   0.47959574   -1.7800673  0.094144249    -1.595799    2.1834568
Averages over the last 11 of 21 rows, steps 30000 to 40000:
Temp E_pair E_mol TotEng Press
0.45428 -1.77068 0.0941442 -1.59116 3.06948
Loop time of 1.21517 on 4 procs for 20000 steps with 1200 atoms
